LTspice 24.0.9 for Windows
Circuit: * C:\Users\Chaitanya\Documents\Github\AD4630-DSA\hw\simulation\SN6507.asc
Start Time: Wed Mar 13 10:33:30 2024
solver = Normal
Maximum thread count: 16
tnom = 27
temp = 27
method = modified trap
Direct Newton iteration for .op point succeeded.
Total elapsed time: 3.135 seconds.

